LAMMPS (22 Aug 2018)
Processor partition = 1
# Demonstrating temper/swap

variable        tt equal 400.0      # target temperature
variable        pp equal 0.0      # target pressure
variable        chempot equal 0     # unused gcmc argument

variable        nlat equal 4        # supercell size
variable        natoms equal 4*4^3
variable        nd equal 1               # interval for fix gcmc
variable        nv equal 1               # interval for fix mc/box

variable        dmove equal 0.10         # size of max MC displacement
variable        vmove equal 0.05         # size of max MC volume change

units           metal
atom_style      atomic
pair_style      eam/alloy

#atom_modify     map array
#atom_modify     sort 0 0.0

boundary        p p p

variable        lat equal 4.0
variable        xx equal 4*4
variable        yy equal 4*4
variable        zz equal 4*4

region          box1   block 0 16 0 16 0 16

lattice         fcc 4 origin 0.25 0.25 0.25
Lattice spacing in x,y,z = 4 4 4
create_box      2  box1
Created orthogonal box = (0 0 0) to (16 16 16)
create_atoms    1  box
Created 256 atoms
  Time spent = 0.000558615 secs

set             type 1 type/fraction 2 0.40 12345 ### for nlat = 2
  89 settings made for type/fraction

pair_style      eam/alloy
pair_coeff      * *   PtAu.eam.alloy Pt Au

variable        temper_T world 400 400
variable 	rep world 0 1
variable        each equal 100
variable	dach equal v_each*10
variable        ncycles equal 2000

# atom counts

variable        Pt atom "type==1"
variable        Au atom "type==2"

group           Pt dynamic all var Pt
dynamic group Pt defined
group           Au dynamic all var Au
dynamic group Au defined

variable        cPt equal count(Pt)
variable        cAu equal count(Au)

variable        tt     equal 2.0*400
velocity        all create 800 12345 mom yes rot yes dist gaussian

fix             myfix all npt temp 400 400 1.0 iso 0 0 1.0
run             10000
  update every 1 steps, delay 10 steps, check yes
Step Temp E_pair E_mol TotEng Press Volume
0          800   -1167.9735            0   -1141.6044    62211.214         4096
Loop time of 4.95552 on 1 procs for 10000 steps with 256 atoms

unfix           myfix

thermo_style    custom step temp epair vol etotal press density v_cPt v_cAu
thermo          100

reset_timestep 0    ### reset to get counter on swaps correct

fix             myfix all npt temp 400 400 1.0 iso 0 0 2.0 tchain 5 pchain 5
#fix             myfix all nve

dump            1 all custom 1000 dump.1 id type x y z

gibbs/multireplica 10000000  100  2000 400 myfix 123 888 types 1 2 fudge 0.0
Step Temp E_pair Volume TotEng Press Density v_cPt v_cAu
0    391.71517   -1161.1561    4293.4249   -1148.2446     -1403.26    19.380725          167           89
Step Temp E_pair Volume TotEng Press Density v_cPt v_cAu
100    388.01648   -1161.0314    4289.4842   -1148.2419    754.62229    19.398529          167           89
Step Temp E_pair Volume TotEng Press Density v_cPt v_cAu
200    406.81102   -1161.6378     4291.839   -1148.2288   -1784.5414    19.387886          167           89
Step Temp E_pair Volume TotEng Press Density v_cPt v_cAu
300    384.29912   -1160.8805    4287.3233   -1148.2135    1007.8822    19.408307          167           89
Step Temp E_pair Volume TotEng Press Density v_cPt v_cAu
400    387.08243   -1160.9506    4289.6722   -1148.1919    478.52234    19.397679          167           89
Step Temp E_pair Volume TotEng Press Density v_cPt v_cAu
500    394.32468   -1161.1548    4293.1307   -1148.1573   -1346.0584    19.382053          167           89
Step Temp E_pair Volume TotEng Press Density v_cPt v_cAu
600    392.13206   -1161.0467    4285.8253   -1148.1215    2059.6395     19.41509          167           89
Step Temp E_pair Volume TotEng Press Density v_cPt v_cAu
700    379.87376   -1158.1943     4287.834   -1145.6731    2686.7689    19.406722          166           90
Step Temp E_pair Volume TotEng Press Density v_cPt v_cAu
800    398.82205   -1161.1851    4301.9641   -1148.0394   -4495.3232    19.342255          167           89
Step Temp E_pair Volume TotEng Press Density v_cPt v_cAu
900    401.92453   -1158.7798    4290.7033   -1145.5319    3.7613595    19.393744          166           90
Step Temp E_pair Volume TotEng Press Density v_cPt v_cAu
1000    395.77405   -1158.4925    4278.4656   -1145.4473    6308.4214    19.449216          166           90
Step Temp E_pair Volume TotEng Press Density v_cPt v_cAu
1100    389.12989   -1158.2021    4306.4139   -1145.3759   -5572.0618    19.322992          166           90
Step Temp E_pair Volume TotEng Press Density v_cPt v_cAu
1200    390.52976   -1158.1727    4298.1318   -1145.3004   -643.71196    19.360226          166           90
Step Temp E_pair Volume TotEng Press Density v_cPt v_cAu
1300    417.01399   -1158.9086     4282.275   -1145.1632     4833.943    19.431915          166           90
Step Temp E_pair Volume TotEng Press Density v_cPt v_cAu
1400     408.4126   -1158.5008    4298.7392    -1145.039   -4208.4632     19.35749          166           90
Step Temp E_pair Volume TotEng Press Density v_cPt v_cAu
1500    377.55738   -1159.8495    4290.9881   -1147.4047    980.09433    19.391731          167           89
Step Temp E_pair Volume TotEng Press Density v_cPt v_cAu
1600    423.52858   -1161.1929    4290.3158   -1147.2329    1112.7019    19.394769          167           89
Step Temp E_pair Volume TotEng Press Density v_cPt v_cAu
1700    416.70746    -1160.763    4298.6198   -1147.0278   -2559.5931    19.357303          167           89
Step Temp E_pair Volume TotEng Press Density v_cPt v_cAu
1800     378.5775   -1159.2938    4289.2231   -1146.8153     5097.093     19.39971          167           89
Step Temp E_pair Volume TotEng Press Density v_cPt v_cAu
1900    442.55928   -1161.1755     4302.525   -1146.5882   -4230.0067    19.339733          167           89
Step Temp E_pair Volume TotEng Press Density v_cPt v_cAu
2000    431.39076   -1160.5722    4298.8777    -1146.353    -1841.892    19.356142          167           89
Step Temp E_pair Volume TotEng Press Density v_cPt v_cAu
2100    439.58681   -1160.5951    4285.8632   -1146.1058    3652.8648    19.414919          167           89
Step Temp E_pair Volume TotEng Press Density v_cPt v_cAu
2200    397.48208   -1159.0139    4298.3481   -1145.9123    1003.4036    19.358526          167           89
Step Temp E_pair Volume TotEng Press Density v_cPt v_cAu
2300    436.84728   -1160.1069    4310.0632   -1145.7078   -3825.4654    19.305909          167           89
Step Temp E_pair Volume TotEng Press Density v_cPt v_cAu
2400    403.63096   -1161.4113    4294.7025   -1148.1071    2129.7021    19.374234          168           88
Step Temp E_pair Volume TotEng Press Density v_cPt v_cAu
2500     446.2105   -1162.6934    4288.5009   -1147.9857     105.5769    19.402251          168           88
Step Temp E_pair Volume TotEng Press Density v_cPt v_cAu
2600    414.87495   -1161.5861    4284.7062   -1147.9113    3178.2092    19.419434          168           88
Step Temp E_pair Volume TotEng Press Density v_cPt v_cAu
2700    449.33619   -1162.6794    4298.4755   -1147.8686   -2393.2872    19.357228          168           88
Step Temp E_pair Volume TotEng Press Density v_cPt v_cAu
2800    415.12807   -1161.5795    4297.5682   -1147.8964    672.38864    19.361314          168           88
Step Temp E_pair Volume TotEng Press Density v_cPt v_cAu
2900    450.06897   -1162.7426    4295.7227   -1147.9077   -1180.5636    19.369633          168           88
Step Temp E_pair Volume TotEng Press Density v_cPt v_cAu
3000    449.03792    -1162.747     4289.978   -1147.9461    1664.2868     19.39557          168           88
Step Temp E_pair Volume TotEng Press Density v_cPt v_cAu
3100    443.79917   -1162.6369    4296.3949   -1148.0087   -421.40252    19.366602          168           88
Step Temp E_pair Volume TotEng Press Density v_cPt v_cAu
3200    447.78742   -1162.8344    4301.2186   -1148.0747    -3503.144    19.344883          168           88
Step Temp E_pair Volume TotEng Press Density v_cPt v_cAu
3300    421.39591   -1162.0403    4286.5421   -1148.1505      5108.63    19.411117          168           88
Step Temp E_pair Volume TotEng Press Density v_cPt v_cAu
3400    419.90637   -1162.0872    4296.8972   -1148.2465   -1129.3717    19.364338          168           88
Step Temp E_pair Volume TotEng Press Density v_cPt v_cAu
3500    427.34915   -1162.4255    4295.6734   -1148.3395   -1355.0624    19.369855          168           88
Step Temp E_pair Volume TotEng Press Density v_cPt v_cAu
3600    441.72647   -1162.9943    4283.5664   -1148.4344    3852.9857    19.424602          168           88
Step Temp E_pair Volume TotEng Press Density v_cPt v_cAu
3700    410.79935   -1162.1035    4293.4145    -1148.563    660.40867    19.380046          168           88
Step Temp E_pair Volume TotEng Press Density v_cPt v_cAu
3800    439.05772   -1163.1479    4303.6782   -1148.6759   -3715.2593    19.333827          168           88
