LAMMPS (22 Aug 2018)
Processor partition = 0
# Demonstrating temper/swap

variable        tt equal 400.0      # target temperature
variable        pp equal 0.0      # target pressure
variable        chempot equal 0     # unused gcmc argument

variable        nlat equal 4        # supercell size
variable        natoms equal 4*4^3
variable        nd equal 1               # interval for fix gcmc
variable        nv equal 1               # interval for fix mc/box

variable        dmove equal 0.10         # size of max MC displacement
variable        vmove equal 0.05         # size of max MC volume change

units           metal
atom_style      atomic
pair_style      eam/alloy

#atom_modify     map array
#atom_modify     sort 0 0.0

boundary        p p p

variable        lat equal 4.0
variable        xx equal 4*4
variable        yy equal 4*4
variable        zz equal 4*4

region          box1   block 0 16 0 16 0 16

lattice         fcc 4 origin 0.25 0.25 0.25
Lattice spacing in x,y,z = 4 4 4
create_box      2  box1
Created orthogonal box = (0 0 0) to (16 16 16)
create_atoms    1  box
Created 256 atoms
  Time spent = 0.000587463 secs

set             type 1 type/fraction 2 0.40 12345 ### for nlat = 2
  89 settings made for type/fraction

pair_style      eam/alloy
pair_coeff      * *   PtAu.eam.alloy Pt Au

variable        temper_T world 400 400
variable 	rep world 0 1
variable        each equal 100
variable	dach equal v_each*10
variable        ncycles equal 2000

# atom counts

variable        Pt atom "type==1"
variable        Au atom "type==2"

group           Pt dynamic all var Pt
dynamic group Pt defined
group           Au dynamic all var Au
dynamic group Au defined

variable        cPt equal count(Pt)
variable        cAu equal count(Au)

variable        tt     equal 2.0*400
velocity        all create 800 12345 mom yes rot yes dist gaussian

fix             myfix all npt temp 400 400 1.0 iso 0 0 1.0
run             10000
  update every 1 steps, delay 10 steps, check yes
Step Temp E_pair E_mol TotEng Press Volume
0          800   -1167.9735            0   -1141.6044    62211.214         4096
Loop time of 4.90743 on 1 procs for 10000 steps with 256 atoms

unfix           myfix

thermo_style    custom step temp epair vol etotal press density v_cPt v_cAu
thermo          100

reset_timestep 0    ### reset to get counter on swaps correct

fix             myfix all npt temp 400 400 1.0 iso 0 0 2.0 tchain 5 pchain 5
#fix             myfix all nve

dump            1 all custom 1000 dump.0 id type x y z

gibbs/multireplica 10000000  100  2000 400 myfix 123 888 types 1 2 fudge 0.0
Step Temp E_pair Volume TotEng Press Density v_cPt v_cAu
0    391.71517   -1161.1561    4293.4249   -1148.2446     -1403.26    19.380725          167           89
Step Temp E_pair Volume TotEng Press Density v_cPt v_cAu
100    388.01648   -1161.0314    4289.4842   -1148.2419    754.62229    19.398529          167           89
Step Temp E_pair Volume TotEng Press Density v_cPt v_cAu
200    406.81102   -1161.6378     4291.839   -1148.2288   -1784.5414    19.387886          167           89
Step Temp E_pair Volume TotEng Press Density v_cPt v_cAu
300    384.29912   -1160.8805    4287.3233   -1148.2135    1007.8822    19.408307          167           89
Step Temp E_pair Volume TotEng Press Density v_cPt v_cAu
400    387.08243   -1160.9506    4289.6722   -1148.1919    478.52234    19.397679          167           89
Step Temp E_pair Volume TotEng Press Density v_cPt v_cAu
500    394.32468   -1161.1548    4293.1307   -1148.1573   -1346.0584    19.382053          167           89
Step Temp E_pair Volume TotEng Press Density v_cPt v_cAu
600    392.13206   -1161.0467    4285.8253   -1148.1215    2059.6395     19.41509          167           89
Step Temp E_pair Volume TotEng Press Density v_cPt v_cAu
700    379.87376    -1162.988     4287.834   -1150.4669    581.17185    19.405268          168           88
Step Temp E_pair Volume TotEng Press Density v_cPt v_cAu
800    399.78469   -1161.1394    4293.9555    -1147.962   -1849.6655     19.37833          167           89
Step Temp E_pair Volume TotEng Press Density v_cPt v_cAu
900    408.86151   -1163.7908    4286.7889   -1150.3142   -1596.0415    19.409999          168           88
Step Temp E_pair Volume TotEng Press Density v_cPt v_cAu
1000    399.00145   -1163.3987    4278.8137    -1150.247    3774.5005    19.446177          168           88
Step Temp E_pair Volume TotEng Press Density v_cPt v_cAu
1100    396.07461   -1163.2353      4293.21   -1150.1801   -2236.9206    19.380969          168           88
Step Temp E_pair Volume TotEng Press Density v_cPt v_cAu
1200    391.36581   -1162.9711    4293.2462   -1150.0711   -1590.1538    19.380805          168           88
Step Temp E_pair Volume TotEng Press Density v_cPt v_cAu
1300    404.88685   -1163.3132    4280.3653   -1149.9675    3794.8037    19.439128          168           88
Step Temp E_pair Volume TotEng Press Density v_cPt v_cAu
1400    415.75987   -1163.5599    4285.7614   -1149.8559   -1123.6039    19.414653          168           88
Step Temp E_pair Volume TotEng Press Density v_cPt v_cAu
1500    410.33495   -1160.7573     4288.647   -1147.2321   -262.37685    19.402316          167           89
Step Temp E_pair Volume TotEng Press Density v_cPt v_cAu
1600    409.39831   -1160.6314    4293.4679   -1147.1371    569.05543     19.38053          167           89
Step Temp E_pair Volume TotEng Press Density v_cPt v_cAu
1700    391.01857   -1159.8506    4298.0822   -1146.9621   -1773.1256    19.359724          167           89
Step Temp E_pair Volume TotEng Press Density v_cPt v_cAu
1800    403.76777   -1160.0816    4279.1348   -1146.7729    5813.0274    19.445446          167           89
Step Temp E_pair Volume TotEng Press Density v_cPt v_cAu
1900    430.12094   -1160.7186    4293.5347   -1146.5412   -1213.5607    19.380229          167           89
Step Temp E_pair Volume TotEng Press Density v_cPt v_cAu
2000    435.61219   -1160.6414    4309.7933    -1146.283   -7385.3913    19.307118          167           89
Step Temp E_pair Volume TotEng Press Density v_cPt v_cAu
2100    425.26259   -1160.0688     4280.186   -1146.0516    7122.7064    19.440671          167           89
Step Temp E_pair Volume TotEng Press Density v_cPt v_cAu
2200    413.36477   -1159.4787    4290.1282   -1145.8536    2358.1308    19.395617          167           89
Step Temp E_pair Volume TotEng Press Density v_cPt v_cAu
2300    444.01522    -1160.248    4315.7171   -1145.6126   -9600.9256    19.280616          167           89
Step Temp E_pair Volume TotEng Press Density v_cPt v_cAu
2400    409.67475   -1156.4709      4282.04   -1142.9675    10549.449    19.432981          166           90
Step Temp E_pair Volume TotEng Press Density v_cPt v_cAu
2500    422.40638   -1156.7758    4297.3595   -1142.8527    1123.7024    19.363705          166           90
Step Temp E_pair Volume TotEng Press Density v_cPt v_cAu
2600    414.94079   -1156.3877    4315.3426   -1142.7107   -6534.8994    19.283012          166           90
Step Temp E_pair Volume TotEng Press Density v_cPt v_cAu
2700     459.9307    -1157.803    4280.8478   -1142.6431    6357.7058    19.438393          166           90
Step Temp E_pair Volume TotEng Press Density v_cPt v_cAu
2800    434.72754   -1157.0037    4295.2035   -1142.6745    2790.6557    19.373425          166           90
Step Temp E_pair Volume TotEng Press Density v_cPt v_cAu
2900    417.91379   -1156.3485    4328.7102   -1142.5735   -9338.0982    19.223463          166           90
Step Temp E_pair Volume TotEng Press Density v_cPt v_cAu
3000     438.8512   -1157.1593    4285.5825   -1142.6941    5564.1836    19.416918          166           90
Step Temp E_pair Volume TotEng Press Density v_cPt v_cAu
3100    470.97247   -1158.2316     4282.824   -1142.7077    5424.5549    19.429424          166           90
Step Temp E_pair Volume TotEng Press Density v_cPt v_cAu
3200    427.23443   -1156.7813    4327.2234   -1142.6991   -9613.2754    19.230068          166           90
Step Temp E_pair Volume TotEng Press Density v_cPt v_cAu
3300     462.6716   -1158.1268    4299.0457   -1142.8765   -854.03098     19.35611          166           90
Step Temp E_pair Volume TotEng Press Density v_cPt v_cAu
3400    412.65862   -1156.5232    4277.6138   -1142.9215    10217.707    19.453089          166           90
Step Temp E_pair Volume TotEng Press Density v_cPt v_cAu
3500     397.6412   -1156.1097    4319.7683   -1143.0029    -7396.527    19.263256          166           90
Step Temp E_pair Volume TotEng Press Density v_cPt v_cAu
3600    434.36782   -1157.5019    4298.8247   -1143.1846    131.75275    19.357105          166           90
Step Temp E_pair Volume TotEng Press Density v_cPt v_cAu
3700    439.44925   -1157.7015     4276.547   -1143.2167    9011.3591    19.457941          166           90
Step Temp E_pair Volume TotEng Press Density v_cPt v_cAu
3800    428.43684   -1157.6885    4319.6604   -1143.5666   -7130.4238    19.263737          166           90
