LAMMPS (22 Aug 2018)
Processor partition = 2
variable        tt equal 400.0      # target temperature
variable        pp equal 0.0      # target pressure

variable        temper_T world 400 400 400 400
variable 	rep world 0 1 2 3
variable        each equal 100
variable        ncycles equal 3500
variable        dach equal v_each*10
variable        vmove equal 0.05         # size of max MC volume change

units           metal
atom_style      atomic
pair_style      eam/alloy

boundary        p p p
read_data       data.2
  orthogonal box = (0 0 0) to (7.5 12.9904 12.2474)
  reading atoms ...
  108 atoms
  reading velocities ...
  108 velocities

pair_style      eam/alloy
pair_coeff      * *   NiCoFeTi.eam.alloy Ni Co Fe Ti

variable        Ni atom "type==1"
variable        Co atom "type==2"
variable        Fe atom "type==3"
variable        Ti atom "type==4"

group           Ni dynamic all var Ni
dynamic group Ni defined
group           Co dynamic all var Co
dynamic group Co defined
group           Ti dynamic all var Ti
dynamic group Ti defined
group           Fe dynamic all var Fe
dynamic group Fe defined

variable        cNi equal count(Ni)
variable        cCo equal count(Co)
variable        cTi equal count(Ti)
variable        cFe equal count(Fe)

variable        tt     equal 2.0*400
velocity        all create 800 87287 mom yes rot yes dist gaussian

fix             myfix all npt temp 400 400 1.0 aniso 0 0 2.0 tchain 5 pchain 5
run		5000
  update every 1 steps, delay 10 steps, check yes
Step Temp E_pair E_mol TotEng Press Volume
0          800   -476.24509            0   -465.18042     23694.46    1193.2427
Loop time of 2.20687 on 1 procs for 5000 steps with 108 atoms

unfix		myfix

thermo_style    custom step temp epair vol etotal press density lx ly lz v_cNi v_cCo v_cFe v_cTi
thermo          10

fix             myfix all npt temp 400 400 1.0 aniso 0 0 2.0 tchain 5 pchain 5
#fix             myfix all nve
fix             myfix all npt temp 400 400 1.0 aniso 0 0 2.0 tchain 5 pchain 5

dump            1 all custom 1000 dump.2 id type x y z
gibbs/multireplica 100000000  100  3500 400 myfix 888 123 types 1 2 fudge 0.0
Step Temp E_pair Volume TotEng Press Density Lx Ly Lz v_cNi v_cCo v_cFe v_cTi
5000    414.56198   -470.70845    1216.7467   -464.97471    5351.0732    8.6862273    7.5327648    13.168431    12.266248            0          108            0            0
Step Temp E_pair Volume TotEng Press Density Lx Ly Lz v_cNi v_cCo v_cFe v_cTi
5100    389.31685   -470.37142       1221.1   -464.98684    67.072821    8.6552605    7.5479961    13.179744    12.274748            0          108            0            0
Step Temp E_pair Volume TotEng Press Density Lx Ly Lz v_cNi v_cCo v_cFe v_cTi
5200    389.64774   -470.37111    1224.8836   -464.98196   -5381.8783    8.6285244      7.56888    13.174577    12.283624            0          108            0            0
Step Temp E_pair Volume TotEng Press Density Lx Ly Lz v_cNi v_cCo v_cFe v_cTi
5300    446.39865   -471.16446    1219.9908   -464.99039   -544.07284    8.6631293    7.5674892    13.127709    12.280493            0          108            0            0
Step Temp E_pair Volume TotEng Press Density Lx Ly Lz v_cNi v_cCo v_cFe v_cTi
5400     386.2569   -470.32867    1216.9076   -464.98641    7037.7213     8.685079    7.5715464     13.09901    12.269717            0          108            0            0
Step Temp E_pair Volume TotEng Press Density Lx Ly Lz v_cNi v_cCo v_cFe v_cTi
5500    415.45532   -470.74053    1222.7304   -464.99444   -3071.9422    8.6437191    7.5887049    13.112372    12.288017            0          108            0            0
Step Temp E_pair Volume TotEng Press Density Lx Ly Lz v_cNi v_cCo v_cFe v_cTi
5600    408.09123   -470.64641    1224.6713   -465.00217    -5802.623    8.6300203     7.577679    13.136341    12.302941            0          108            0            0
Step Temp E_pair Volume TotEng Press Density Lx Ly Lz v_cNi v_cCo v_cFe v_cTi
5700    429.47182   -470.94794    1218.2706   -465.00798    2818.4549    8.6753619    7.5506637    13.138007    12.280871            0          108            0            0
Step Temp E_pair Volume TotEng Press Density Lx Ly Lz v_cNi v_cCo v_cFe v_cTi
5800    407.11617   -470.65064    1217.5557   -465.01989     4789.798    8.6804556    7.5340994    13.156371    12.283479            0          108            0            0
Step Temp E_pair Volume TotEng Press Density Lx Ly Lz v_cNi v_cCo v_cFe v_cTi
5900    370.61512   -470.14876    1223.9619   -465.02285   -3667.8605    8.6350227    7.5361645    13.197108    12.306619            0          108            0            0
Step Temp E_pair Volume TotEng Press Density Lx Ly Lz v_cNi v_cCo v_cFe v_cTi
6000    406.37801   -470.66289    1223.5319   -465.04234   -4643.8112    8.6380571    7.5523141     13.18517    12.287104            0          108            0            0
Step Temp E_pair Volume TotEng Press Density Lx Ly Lz v_cNi v_cCo v_cFe v_cTi
6100    419.62733   -470.84993    1217.2911   -465.04613    4642.6964    8.6823423    7.5519604    13.145751    12.261663            0          108            0            0
Step Temp E_pair Volume TotEng Press Density Lx Ly Lz v_cNi v_cCo v_cFe v_cTi
6200    379.18459    -470.3234    1218.2962   -465.07896    4400.4638    8.6751795    7.5689153     13.10925     12.27839            0          108            0            0
Step Temp E_pair Volume TotEng Press Density Lx Ly Lz v_cNi v_cCo v_cFe v_cTi
6300    416.49668   -470.83554    1224.8709   -465.07504   -7210.9126    8.6286142    7.5975623    13.083923    12.321911            0          108            0            0
Step Temp E_pair Volume TotEng Press Density Lx Ly Lz v_cNi v_cCo v_cFe v_cTi
6400    408.47008    -470.7523     1222.311   -465.10282   -3321.0601    8.6466852    7.5901217    13.074924    12.316684            0          108            0            0
Step Temp E_pair Volume TotEng Press Density Lx Ly Lz v_cNi v_cCo v_cFe v_cTi
6500    351.40251   -469.98598    1215.2775   -465.12579    10347.166    8.6967283    7.5843499    13.069007    12.260679            0          108            0            0
Step Temp E_pair Volume TotEng Press Density Lx Ly Lz v_cNi v_cCo v_cFe v_cTi
6600     468.5865    -471.6619    1220.1524   -465.18096   -2228.3144    8.6619819    7.5903649    13.122905    12.249588            0          108            0            0
Step Temp E_pair Volume TotEng Press Density Lx Ly Lz v_cNi v_cCo v_cFe v_cTi
6700    400.60419   -470.73678    1227.0618   -465.19609   -9646.1434    8.6132079    7.5713547    13.195989    12.281486            0          108            0            0
Step Temp E_pair Volume TotEng Press Density Lx Ly Lz v_cNi v_cCo v_cFe v_cTi
6800     382.6716    -470.5484    1220.4308   -465.25573   -37.347029    8.6600059     7.538513    13.166056    12.296225            0          108            0            0
Step Temp E_pair Volume TotEng Press Density Lx Ly Lz v_cNi v_cCo v_cFe v_cTi
6900    397.09163   -470.77103      1212.65   -465.27893     10678.15    8.7155718    7.5069254     13.13713    12.296256            0          108            0            0
Step Temp E_pair Volume TotEng Press Density Lx Ly Lz v_cNi v_cCo v_cFe v_cTi
7000    370.92529   -470.51576    1220.7084   -465.38555   -591.15583    8.6580368    7.5353688    13.148121    12.320937            0          108            0            0
Step Temp E_pair Volume TotEng Press Density Lx Ly Lz v_cNi v_cCo v_cFe v_cTi
7100    381.69556   -470.70204     1227.704   -465.42287   -11201.614    8.6087025     7.587514    13.148942    12.305616            0          108            0            0
Step Temp E_pair Volume TotEng Press Density Lx Ly Lz v_cNi v_cCo v_cFe v_cTi
7200    386.63196   -470.84882    1217.9689   -465.50138     3462.742     8.677511    7.5950369    13.113538    12.228872            0          108            0            0
Step Temp E_pair Volume TotEng Press Density Lx Ly Lz v_cNi v_cCo v_cFe v_cTi
7300    398.21335   -471.04876     1212.512   -465.54114     10930.45     8.716564    7.6080794    13.045377    12.216713            0          108            0            0
Step Temp E_pair Volume TotEng Press Density Lx Ly Lz v_cNi v_cCo v_cFe v_cTi
7400    374.98451   -470.82179    1223.8628   -465.63545   -6115.3587    8.6357219     7.615219     13.07339    12.293119            0          108            0            0
Step Temp E_pair Volume TotEng Press Density Lx Ly Lz v_cNi v_cCo v_cFe v_cTi
7500    357.10973   -470.60254    1226.9042   -465.66342   -10455.167    8.6143142    7.5955784    13.095008    12.335139            0          108            0            0
Step Temp E_pair Volume TotEng Press Density Lx Ly Lz v_cNi v_cCo v_cFe v_cTi
7600    378.80246   -471.00595    1213.1862    -465.7668    8736.3413    8.7117197    7.5489025    13.077183    12.289365            0          108            0            0
Step Temp E_pair Volume TotEng Press Density Lx Ly Lz v_cNi v_cCo v_cFe v_cTi
7700    349.47189   -470.63404    1211.8995   -465.80056    12843.082    8.7209691    7.5167194    13.162804    12.248697            0          108            0            0
Step Temp E_pair Volume TotEng Press Density Lx Ly Lz v_cNi v_cCo v_cFe v_cTi
7800    393.80344   -471.26914    1227.8371   -465.82251   -13117.387    8.6077693    7.5551313    13.248997    12.266361            0          108            0            0
Step Temp E_pair Volume TotEng Press Density Lx Ly Lz v_cNi v_cCo v_cFe v_cTi
7900    354.36814   -470.76716    1226.7357   -465.86595   -9251.7523    8.6154973    7.5570038    13.244783     12.25622            0          108            0            0
Step Temp E_pair Volume TotEng Press Density Lx Ly Lz v_cNi v_cCo v_cFe v_cTi
8000    374.18514   -471.10723    1210.4557   -465.93193    13809.537    8.7313715    7.5367687    13.129591    12.232423            0          108            0            0
Step Temp E_pair Volume TotEng Press Density Lx Ly Lz v_cNi v_cCo v_cFe v_cTi
8100    362.77949    -470.9588    1213.8581   -465.94126    8243.5435    8.7068978    7.5615723    13.063087    12.288815            0          108            0            0
Step Temp E_pair Volume TotEng Press Density Lx Ly Lz v_cNi v_cCo v_cFe v_cTi
8200    360.50883   -470.90064    1229.1765    -465.9145   -14723.175    8.5983894    7.5936513    13.098885    12.357462            0          108            0            0
Step Temp E_pair Volume TotEng Press Density Lx Ly Lz v_cNi v_cCo v_cFe v_cTi
8300    361.56927   -470.98888    1222.6695   -465.98807    -4919.459    8.6441499     7.599021     13.08011    12.300989            0          108            0            0
Step Temp E_pair Volume TotEng Press Density Lx Ly Lz v_cNi v_cCo v_cFe v_cTi
8400    419.90147   -471.76185    1208.7788   -465.95426    14464.557    8.7434843    7.5687208    13.088571     12.20203            0          108            0            0
Step Temp E_pair Volume TotEng Press Density Lx Ly Lz v_cNi v_cCo v_cFe v_cTi
8500    356.75758   -470.77261    1218.4971   -465.83835    3126.8627     8.669544    7.5666188    13.174646    12.223165            0          107            1            0
Step Temp E_pair Volume TotEng Press Density Lx Ly Lz v_cNi v_cCo v_cFe v_cTi
8600    385.90502   -471.12063    1231.8599   -465.78324   -18751.363    8.5754991    7.5638089    13.242135    12.298801            0          107            1            0
Step Temp E_pair Volume TotEng Press Density Lx Ly Lz v_cNi v_cCo v_cFe v_cTi
8700    355.82329   -470.73577    1219.0384   -465.81444    805.25928    8.6656939    7.5038701    13.197969    12.309063            0          107            1            0
Step Temp E_pair Volume TotEng Press Density Lx Ly Lz v_cNi v_cCo v_cFe v_cTi
8800    375.58517   -470.90544    1206.9408   -465.71078    18656.577    8.7525535    7.4878031    13.114482    12.290808            0          107            1            0
