LAMMPS (22 Aug 2018)
Processor partition = 1
variable        tt equal 400.0      # target temperature
variable        pp equal 0.0      # target pressure

variable        temper_T world 400 400 400 400
variable 	rep world 0 1 2 3
variable        each equal 100
variable        ncycles equal 3500
variable        dach equal v_each*10
variable        vmove equal 0.05         # size of max MC volume change

units           metal
atom_style      atomic
pair_style      eam/alloy

boundary        p p p
read_data       data.1
  orthogonal box = (0 0 0) to (11.68 11.68 11.68)
  reading atoms ...
  128 atoms
  reading velocities ...
  128 velocities

pair_style      eam/alloy
pair_coeff      * *   NiCoFeTi.eam.alloy Ni Co Fe Ti

variable        Ni atom "type==1"
variable        Co atom "type==2"
variable        Fe atom "type==3"
variable        Ti atom "type==4"

group           Ni dynamic all var Ni
dynamic group Ni defined
group           Co dynamic all var Co
dynamic group Co defined
group           Ti dynamic all var Ti
dynamic group Ti defined
group           Fe dynamic all var Fe
dynamic group Fe defined

variable        cNi equal count(Ni)
variable        cCo equal count(Co)
variable        cTi equal count(Ti)
variable        cFe equal count(Fe)

variable        tt     equal 2.0*400
velocity        all create 800 87287 mom yes rot yes dist gaussian

fix             myfix all npt temp 400 400 1.0 aniso 0 0 2.0 tchain 5 pchain 5
run		5000
  update every 1 steps, delay 10 steps, check yes
Step Temp E_pair E_mol TotEng Press Volume
0          800   -546.76626            0   -533.63343   -73613.341    1593.4136
Loop time of 2.44052 on 1 procs for 5000 steps with 128 atoms

unfix		myfix

thermo_style    custom step temp epair vol etotal press density lx ly lz v_cNi v_cCo v_cFe v_cTi
thermo          10

fix             myfix all npt temp 400 400 1.0 aniso 0 0 2.0 tchain 5 pchain 5
#fix             myfix all nve
fix             myfix all npt temp 400 400 1.0 aniso 0 0 2.0 tchain 5 pchain 5

dump            1 all custom 1000 dump.1 id type x y z
gibbs/multireplica 100000000  100  3500 400 myfix 888 123 types 1 2 fudge 0.0
Step Temp E_pair Volume TotEng Press Density Lx Ly Lz v_cNi v_cCo v_cFe v_cTi
5000    425.58199   -542.55054    1522.0205   -535.56416    4985.4188    7.7989902    11.493954    11.516542    11.498176            0            0          128            0
Step Temp E_pair Volume TotEng Press Density Lx Ly Lz v_cNi v_cCo v_cFe v_cTi
5100      404.982   -542.21909    1526.8179   -535.57089   -637.78788    7.7744852    11.507925    11.525605    11.511357            0            0          128            0
Step Temp E_pair Volume TotEng Press Density Lx Ly Lz v_cNi v_cCo v_cFe v_cTi
5200    410.37974   -542.30477    1531.6932   -535.56796   -4058.2628    7.7497395    11.523544    11.531266    11.526799            0            0          128            0
Step Temp E_pair Volume TotEng Press Density Lx Ly Lz v_cNi v_cCo v_cFe v_cTi
5300    407.96598   -542.27727    1527.4942   -535.58009   -501.61506     7.771043    11.514941    11.513518    11.521521            0            0          128            0
Step Temp E_pair Volume TotEng Press Density Lx Ly Lz v_cNi v_cCo v_cFe v_cTi
5400    452.18796   -543.00024    1522.2107   -535.57711    4651.2807     7.798016    11.503507    11.493442    11.513156            0            0          128            0
Step Temp E_pair Volume TotEng Press Density Lx Ly Lz v_cNi v_cCo v_cFe v_cTi
5500      398.978    -542.1425    1527.1055   -535.59286    118.21828    7.7730208    11.517541    11.502401    11.527119            0            0          128            0
Step Temp E_pair Volume TotEng Press Density Lx Ly Lz v_cNi v_cCo v_cFe v_cTi
5600    421.39965   -542.51519    1531.6574   -535.59747   -4283.3354    7.7499206    11.529037    11.516157    11.536153            0            0          128            0
Step Temp E_pair Volume TotEng Press Density Lx Ly Lz v_cNi v_cCo v_cFe v_cTi
5700    397.51518   -542.14605    1526.7017   -535.62043   -210.60551     7.775077    11.514096    11.512461    11.517446            0            0          128            0
Step Temp E_pair Volume TotEng Press Density Lx Ly Lz v_cNi v_cCo v_cFe v_cTi
5800    390.89177   -542.19945    1521.6419   -535.78255    5661.8716    7.8040366     11.49739    11.510689    11.497723            1            0          127            0
Step Temp E_pair Volume TotEng Press Density Lx Ly Lz v_cNi v_cCo v_cFe v_cTi
5900    357.77441   -541.68161    1526.9452   -535.80837   -428.18047     7.776932    11.509158     11.53101    11.505687            1            0          127            0
Step Temp E_pair Volume TotEng Press Density Lx Ly Lz v_cNi v_cCo v_cFe v_cTi
6000    419.41006   -542.71046    1530.6952   -535.82541   -4861.7945    7.7578793    11.520349    11.542554    11.511215            1            0          127            0
Step Temp E_pair Volume TotEng Press Density Lx Ly Lz v_cNi v_cCo v_cFe v_cTi
6100    403.25519   -542.48285    1524.9256     -535.863    1144.7618    7.7872315    11.508582    11.523328    11.498704            1            0          127            0
Step Temp E_pair Volume TotEng Press Density Lx Ly Lz v_cNi v_cCo v_cFe v_cTi
6200    436.19974   -543.04787    1520.7815    -535.8872    5209.6045    7.8084518     11.50094    11.501508    11.496845            1            0          127            0
Step Temp E_pair Volume TotEng Press Density Lx Ly Lz v_cNi v_cCo v_cFe v_cTi
6300    378.30014   -542.14424    1527.4022   -535.93405   -1796.6033    7.7746049    11.520442    11.504991     11.52386            1            0          127            0
Step Temp E_pair Volume TotEng Press Density Lx Ly Lz v_cNi v_cCo v_cFe v_cTi
6400     368.5444   -542.02309    1530.9541   -535.97305   -4034.3957    7.7565673    11.531882    11.502923    11.541276            1            0          127            0
Step Temp E_pair Volume TotEng Press Density Lx Ly Lz v_cNi v_cCo v_cFe v_cTi
6500    404.41071   -542.67956    1523.5537   -536.04074    362.44326    7.7942435    11.513287    11.482681    11.524316            1            0          127            0
Step Temp E_pair Volume TotEng Press Density Lx Ly Lz v_cNi v_cCo v_cFe v_cTi
6600    409.49912   -542.84132     1519.303   -536.11897    6009.6975    7.8160507    11.497718    11.480848    11.509561            1            0          127            0
Step Temp E_pair Volume TotEng Press Density Lx Ly Lz v_cNi v_cCo v_cFe v_cTi
6700    360.03636   -542.12343    1527.9157   -536.21305   -2584.4458     7.771992     11.51167    11.520016    11.521472            1            0          127            0
Step Temp E_pair Volume TotEng Press Density Lx Ly Lz v_cNi v_cCo v_cFe v_cTi
6800    397.50205   -542.82315     1531.266   -536.29774   -5410.3519    7.7549874    11.512916    11.548597    11.516912            1            0          127            0
Step Temp E_pair Volume TotEng Press Density Lx Ly Lz v_cNi v_cCo v_cFe v_cTi
6900    380.46364   -542.66234    1521.9884   -536.41664    2648.5224    7.8022598    11.488118    11.539489    11.480899            1            0          127            0
Step Temp E_pair Volume TotEng Press Density Lx Ly Lz v_cNi v_cCo v_cFe v_cTi
7000    385.27427   -542.84673    1517.7947   -536.52205    7848.6543    7.8238175     11.48148    11.528075    11.467226            1            0          127            0
Step Temp E_pair Volume TotEng Press Density Lx Ly Lz v_cNi v_cCo v_cFe v_cTi
7100    375.35262    -542.8181      1528.64    -536.6563   -5456.1764    7.7683099    11.517157    11.537659    11.503824            1            0          127            0
Step Temp E_pair Volume TotEng Press Density Lx Ly Lz v_cNi v_cCo v_cFe v_cTi
7200    376.12704   -542.94044    1531.2601   -536.76592   -6725.3705    7.7550176    11.535107     11.51691    11.526338            1            0          127            0
Step Temp E_pair Volume TotEng Press Density Lx Ly Lz v_cNi v_cCo v_cFe v_cTi
7300    364.45554   -542.86559    1519.6933   -536.88267    4120.1872    7.8140432    11.515891    11.462034    11.513218            1            0          127            0
Step Temp E_pair Volume TotEng Press Density Lx Ly Lz v_cNi v_cCo v_cFe v_cTi
7400    337.80279   -542.51567    1516.7121   -536.97028    9705.7833     7.829402    11.510887    11.441972    11.515784            1            0          127            0
Step Temp E_pair Volume TotEng Press Density Lx Ly Lz v_cNi v_cCo v_cFe v_cTi
7500    384.20845   -545.05762    1529.7947   -538.75044   -3391.3666    7.7507089    11.536891    11.479646    11.550902            0            0          127            1
Step Temp E_pair Volume TotEng Press Density Lx Ly Lz v_cNi v_cCo v_cFe v_cTi
7600    350.91615   -544.57915    1534.9415    -538.8185   -6672.5464    7.7247202    11.536571    11.515397    11.554102            0            0          127            1
Step Temp E_pair Volume TotEng Press Density Lx Ly Lz v_cNi v_cCo v_cFe v_cTi
7700     337.6654    -544.4497    1524.5469   -538.90657    2562.9765    7.7773887    11.495298     11.52183    11.510629            0            0          127            1
Step Temp E_pair Volume TotEng Press Density Lx Ly Lz v_cNi v_cCo v_cFe v_cTi
7800    398.69611   -545.47937    1519.1448   -538.93436    7642.6543     7.805045    11.470802    11.537478    11.478748            0            0          127            1
Step Temp E_pair Volume TotEng Press Density Lx Ly Lz v_cNi v_cCo v_cFe v_cTi
7900    334.91113   -544.48651    1530.8006    -538.9886   -3509.4482    7.7456157    11.500329    11.579586    11.495168            0            0          127            1
Step Temp E_pair Volume TotEng Press Density Lx Ly Lz v_cNi v_cCo v_cFe v_cTi
8000    334.28136    -544.4965    1535.6513   -539.00892   -7840.8349    7.7211498    11.524745    11.580442    11.506311            0            0          127            1
Step Temp E_pair Volume TotEng Press Density Lx Ly Lz v_cNi v_cCo v_cFe v_cTi
8100    360.59524   -544.97793    1523.0949   -539.05838     3914.269    7.7848028    11.513105    11.517185    11.486512            0            0          127            1
Step Temp E_pair Volume TotEng Press Density Lx Ly Lz v_cNi v_cCo v_cFe v_cTi
8200    391.65661   -545.47846     1518.281   -539.04901     9406.558    7.8094856    11.517826    11.467688    11.494915            0            0          127            1
Step Temp E_pair Volume TotEng Press Density Lx Ly Lz v_cNi v_cCo v_cFe v_cTi
8300    329.92396   -544.46763    1532.3352   -539.05158   -4617.5509     7.737859       11.562    11.473739      11.5509            0            0          127            1
Step Temp E_pair Volume TotEng Press Density Lx Ly Lz v_cNi v_cCo v_cFe v_cTi
8400    351.83609   -544.79793    1535.9528   -539.02217     -7500.79    7.7196339    11.568352    11.474565     11.57098            0            0          127            1
Step Temp E_pair Volume TotEng Press Density Lx Ly Lz v_cNi v_cCo v_cFe v_cTi
8500    382.65008   -545.31015    1522.1401   -539.02855      3451.86    7.7896863    11.518562    11.457928    11.533212            0            0          127            1
Step Temp E_pair Volume TotEng Press Density Lx Ly Lz v_cNi v_cCo v_cFe v_cTi
8600    369.09221   -545.04218      1517.73   -538.98315    11155.106    7.8123205    11.486669    11.483471    11.506076            0            0          127            1
Step Temp E_pair Volume TotEng Press Density Lx Ly Lz v_cNi v_cCo v_cFe v_cTi
8700    325.59749    -544.2951    1533.6702   -538.95008   -7198.0991    7.7311232    11.507448    11.566997    11.522118            0            0          127            1
Step Temp E_pair Volume TotEng Press Density Lx Ly Lz v_cNi v_cCo v_cFe v_cTi
8800    363.74131   -544.83204     1536.251   -538.86085    -8855.551    7.7181354    11.505597    11.602471    11.508072            0            0          127            1
